 <routes>
		<vType id="typeWE" accel="0.8" decel="4.5" sigma="0.5" length="5" minGap="2.5" maxSpeed="16.67" guiShape="passenger"/>
        <vType id="typeNS" accel="0.8" decel="4.5" sigma="0.5" length="7" minGap="3" maxSpeed="25" guiShape="bus"/>
		<route id="up" edges="e2 e1" />
        <route id="left" edges="e3 e8 e1" />
        <route id="right" edges="e4 e8 e1" />
        <route id = "down" edges = "e6 e9 e8 e1"/> 
	<vehicle id = "left_0" type = "typeWE" route = "left" depart = "0" />
	<vehicle id = "left_1" type = "typeWE" route = "left" depart = "2" />
	<vehicle id = "right_2" type = "typeWE" route = "right" depart = "3" />
	<vehicle id="up_3" type="typeNS" route="up" depart="4" color="1,0,0" />
	<vehicle id="down_4" type="typeNS" route="down" depart="6" color="1,0,0" />
	<vehicle id = "left_5" type = "typeWE" route = "left" depart = "10" />
	<vehicle id = "right_6" type = "typeWE" route = "right" depart = "11" />
	<vehicle id="up_7" type="typeNS" route="up" depart="16" color="1,0,0" />
	<vehicle id = "right_8" type = "typeWE" route = "right" depart = "22" />
	<vehicle id = "left_9" type = "typeWE" route = "left" depart = "22" />
	<vehicle id="down_10" type="typeNS" route="down" depart="23" color="1,0,0" />
	<vehicle id = "right_11" type = "typeWE" route = "right" depart = "25" />
	<vehicle id = "right_12" type = "typeWE" route = "right" depart = "31" />
	<vehicle id="down_13" type="typeNS" route="down" depart="31" color="1,0,0" />
	<vehicle id="down_14" type="typeNS" route="down" depart="33" color="1,0,0" />
	<vehicle id = "right_15" type = "typeWE" route = "right" depart = "34" />
	<vehicle id = "right_16" type = "typeWE" route = "right" depart = "40" />
	<vehicle id = "right_17" type = "typeWE" route = "right" depart = "44" />
	<vehicle id = "left_18" type = "typeWE" route = "left" depart = "49" />
	<vehicle id = "right_19" type = "typeWE" route = "right" depart = "56" />
	<vehicle id="down_20" type="typeNS" route="down" depart="57" color="1,0,0" />
	<vehicle id = "right_21" type = "typeWE" route = "right" depart = "63" />
	<vehicle id = "right_22" type = "typeWE" route = "right" depart = "64" />
	<vehicle id = "left_23" type = "typeWE" route = "left" depart = "67" />
	<vehicle id="down_24" type="typeNS" route="down" depart="72" color="1,0,0" />
	<vehicle id = "left_25" type = "typeWE" route = "left" depart = "74" />
	<vehicle id="down_26" type="typeNS" route="down" depart="74" color="1,0,0" />
	<vehicle id = "right_27" type = "typeWE" route = "right" depart = "81" />
	<vehicle id="down_28" type="typeNS" route="down" depart="85" color="1,0,0" />
	<vehicle id = "right_29" type = "typeWE" route = "right" depart = "92" />
	<vehicle id="down_30" type="typeNS" route="down" depart="98" color="1,0,0" />
	<vehicle id="down_31" type="typeNS" route="down" depart="101" color="1,0,0" />
	<vehicle id="up_32" type="typeNS" route="up" depart="103" color="1,0,0" />
	<vehicle id="up_33" type="typeNS" route="up" depart="106" color="1,0,0" />
	<vehicle id = "right_34" type = "typeWE" route = "right" depart = "115" />
	<vehicle id = "left_35" type = "typeWE" route = "left" depart = "117" />
	<vehicle id = "left_36" type = "typeWE" route = "left" depart = "120" />
	<vehicle id = "left_37" type = "typeWE" route = "left" depart = "123" />
	<vehicle id = "left_38" type = "typeWE" route = "left" depart = "125" />
	<vehicle id = "right_39" type = "typeWE" route = "right" depart = "126" />
	<vehicle id = "right_40" type = "typeWE" route = "right" depart = "127" />
	<vehicle id="down_41" type="typeNS" route="down" depart="129" color="1,0,0" />
	<vehicle id = "right_42" type = "typeWE" route = "right" depart = "132" />
	<vehicle id="up_43" type="typeNS" route="up" depart="135" color="1,0,0" />
	<vehicle id = "left_44" type = "typeWE" route = "left" depart = "147" />
	<vehicle id="down_45" type="typeNS" route="down" depart="149" color="1,0,0" />
	<vehicle id = "right_46" type = "typeWE" route = "right" depart = "150" />
	<vehicle id = "right_47" type = "typeWE" route = "right" depart = "152" />
	<vehicle id = "left_48" type = "typeWE" route = "left" depart = "159" />
	<vehicle id = "right_49" type = "typeWE" route = "right" depart = "164" />
	<vehicle id="down_50" type="typeNS" route="down" depart="164" color="1,0,0" />
	<vehicle id = "right_51" type = "typeWE" route = "right" depart = "171" />
	<vehicle id = "right_52" type = "typeWE" route = "right" depart = "179" />
	<vehicle id = "right_53" type = "typeWE" route = "right" depart = "180" />
	<vehicle id = "right_54" type = "typeWE" route = "right" depart = "182" />
	<vehicle id = "left_55" type = "typeWE" route = "left" depart = "204" />
	<vehicle id="down_56" type="typeNS" route="down" depart="206" color="1,0,0" />
	<vehicle id="up_57" type="typeNS" route="up" depart="212" color="1,0,0" />
	<vehicle id = "right_58" type = "typeWE" route = "right" depart = "213" />
	<vehicle id="down_59" type="typeNS" route="down" depart="214" color="1,0,0" />
	<vehicle id = "right_60" type = "typeWE" route = "right" depart = "216" />
	<vehicle id="down_61" type="typeNS" route="down" depart="220" color="1,0,0" />
	<vehicle id = "right_62" type = "typeWE" route = "right" depart = "227" />
	<vehicle id = "right_63" type = "typeWE" route = "right" depart = "239" />
	<vehicle id="down_64" type="typeNS" route="down" depart="241" color="1,0,0" />
	<vehicle id = "right_65" type = "typeWE" route = "right" depart = "245" />
	<vehicle id="up_66" type="typeNS" route="up" depart="248" color="1,0,0" />
	<vehicle id = "right_67" type = "typeWE" route = "right" depart = "250" />
	<vehicle id = "left_68" type = "typeWE" route = "left" depart = "253" />
	<vehicle id="down_69" type="typeNS" route="down" depart="254" color="1,0,0" />
	<vehicle id="down_70" type="typeNS" route="down" depart="256" color="1,0,0" />
	<vehicle id = "left_71" type = "typeWE" route = "left" depart = "258" />
	<vehicle id="down_72" type="typeNS" route="down" depart="258" color="1,0,0" />
	<vehicle id = "left_73" type = "typeWE" route = "left" depart = "262" />
	<vehicle id="down_74" type="typeNS" route="down" depart="265" color="1,0,0" />
	<vehicle id = "right_75" type = "typeWE" route = "right" depart = "266" />
	<vehicle id="down_76" type="typeNS" route="down" depart="273" color="1,0,0" />
	<vehicle id = "left_77" type = "typeWE" route = "left" depart = "281" />
	<vehicle id = "left_78" type = "typeWE" route = "left" depart = "283" />
	<vehicle id="up_79" type="typeNS" route="up" depart="284" color="1,0,0" />
	<vehicle id = "right_80" type = "typeWE" route = "right" depart = "287" />
	<vehicle id = "left_81" type = "typeWE" route = "left" depart = "287" />
	<vehicle id = "left_82" type = "typeWE" route = "left" depart = "291" />
	<vehicle id = "right_83" type = "typeWE" route = "right" depart = "292" />
	<vehicle id="down_84" type="typeNS" route="down" depart="293" color="1,0,0" />
	<vehicle id="down_85" type="typeNS" route="down" depart="295" color="1,0,0" />
	<vehicle id = "right_86" type = "typeWE" route = "right" depart = "296" />
	<vehicle id = "left_87" type = "typeWE" route = "left" depart = "296" />
	<vehicle id = "left_88" type = "typeWE" route = "left" depart = "298" />
	<vehicle id = "right_89" type = "typeWE" route = "right" depart = "309" />
	<vehicle id = "right_90" type = "typeWE" route = "right" depart = "310" />
	<vehicle id = "right_91" type = "typeWE" route = "right" depart = "311" />
	<vehicle id="down_92" type="typeNS" route="down" depart="311" color="1,0,0" />
	<vehicle id = "left_93" type = "typeWE" route = "left" depart = "315" />
	<vehicle id = "right_94" type = "typeWE" route = "right" depart = "320" />
	<vehicle id = "right_95" type = "typeWE" route = "right" depart = "329" />
	<vehicle id="down_96" type="typeNS" route="down" depart="330" color="1,0,0" />
	<vehicle id = "left_97" type = "typeWE" route = "left" depart = "343" />
	<vehicle id="down_98" type="typeNS" route="down" depart="343" color="1,0,0" />
	<vehicle id="up_99" type="typeNS" route="up" depart="344" color="1,0,0" />
	<vehicle id="up_100" type="typeNS" route="up" depart="347" color="1,0,0" />
	<vehicle id = "right_101" type = "typeWE" route = "right" depart = "348" />
	<vehicle id = "left_102" type = "typeWE" route = "left" depart = "350" />
	<vehicle id = "right_103" type = "typeWE" route = "right" depart = "352" />
	<vehicle id = "left_104" type = "typeWE" route = "left" depart = "357" />
	<vehicle id = "left_105" type = "typeWE" route = "left" depart = "359" />
	<vehicle id="down_106" type="typeNS" route="down" depart="361" color="1,0,0" />
	<vehicle id="down_107" type="typeNS" route="down" depart="362" color="1,0,0" />
	<vehicle id = "right_108" type = "typeWE" route = "right" depart = "363" />
	<vehicle id="down_109" type="typeNS" route="down" depart="370" color="1,0,0" />
	<vehicle id = "left_110" type = "typeWE" route = "left" depart = "372" />
	<vehicle id = "right_111" type = "typeWE" route = "right" depart = "374" />
	<vehicle id = "left_112" type = "typeWE" route = "left" depart = "376" />
	<vehicle id="down_113" type="typeNS" route="down" depart="376" color="1,0,0" />
	<vehicle id="down_114" type="typeNS" route="down" depart="384" color="1,0,0" />
	<vehicle id = "right_115" type = "typeWE" route = "right" depart = "389" />
	<vehicle id="down_116" type="typeNS" route="down" depart="390" color="1,0,0" />
	<vehicle id="down_117" type="typeNS" route="down" depart="395" color="1,0,0" />
	<vehicle id = "right_118" type = "typeWE" route = "right" depart = "402" />
	<vehicle id = "left_119" type = "typeWE" route = "left" depart = "402" />
	<vehicle id = "right_120" type = "typeWE" route = "right" depart = "406" />
	<vehicle id = "left_121" type = "typeWE" route = "left" depart = "406" />
	<vehicle id="down_122" type="typeNS" route="down" depart="410" color="1,0,0" />
	<vehicle id = "left_123" type = "typeWE" route = "left" depart = "414" />
	<vehicle id="up_124" type="typeNS" route="up" depart="423" color="1,0,0" />
	<vehicle id = "left_125" type = "typeWE" route = "left" depart = "430" />
	<vehicle id="up_126" type="typeNS" route="up" depart="433" color="1,0,0" />
	<vehicle id="down_127" type="typeNS" route="down" depart="434" color="1,0,0" />
	<vehicle id="down_128" type="typeNS" route="down" depart="450" color="1,0,0" />
	<vehicle id="up_129" type="typeNS" route="up" depart="451" color="1,0,0" />
	<vehicle id = "right_130" type = "typeWE" route = "right" depart = "459" />
	<vehicle id="down_131" type="typeNS" route="down" depart="465" color="1,0,0" />
	<vehicle id="down_132" type="typeNS" route="down" depart="468" color="1,0,0" />
	<vehicle id = "left_133" type = "typeWE" route = "left" depart = "469" />
	<vehicle id="down_134" type="typeNS" route="down" depart="476" color="1,0,0" />
	<vehicle id = "right_135" type = "typeWE" route = "right" depart = "477" />
	<vehicle id="down_136" type="typeNS" route="down" depart="479" color="1,0,0" />
	<vehicle id = "right_137" type = "typeWE" route = "right" depart = "481" />
	<vehicle id = "right_138" type = "typeWE" route = "right" depart = "483" />
	<vehicle id="down_139" type="typeNS" route="down" depart="483" color="1,0,0" />
	<vehicle id="up_140" type="typeNS" route="up" depart="484" color="1,0,0" />
	<vehicle id = "left_141" type = "typeWE" route = "left" depart = "490" />
	<vehicle id="down_142" type="typeNS" route="down" depart="490" color="1,0,0" />
	<vehicle id="down_143" type="typeNS" route="down" depart="494" color="1,0,0" />
	<vehicle id = "left_144" type = "typeWE" route = "left" depart = "495" />
	<vehicle id = "right_145" type = "typeWE" route = "right" depart = "496" />
	<vehicle id="down_146" type="typeNS" route="down" depart="497" color="1,0,0" />
	<vehicle id = "right_147" type = "typeWE" route = "right" depart = "501" />
	<vehicle id="down_148" type="typeNS" route="down" depart="512" color="1,0,0" />
	<vehicle id = "right_149" type = "typeWE" route = "right" depart = "517" />
	<vehicle id="down_150" type="typeNS" route="down" depart="525" color="1,0,0" />
	<vehicle id="up_151" type="typeNS" route="up" depart="525" color="1,0,0" />
	<vehicle id = "right_152" type = "typeWE" route = "right" depart = "528" />
	<vehicle id = "right_153" type = "typeWE" route = "right" depart = "530" />
	<vehicle id="down_154" type="typeNS" route="down" depart="530" color="1,0,0" />
	<vehicle id="down_155" type="typeNS" route="down" depart="531" color="1,0,0" />
	<vehicle id = "right_156" type = "typeWE" route = "right" depart = "533" />
	<vehicle id = "right_157" type = "typeWE" route = "right" depart = "538" />
	<vehicle id = "left_158" type = "typeWE" route = "left" depart = "538" />
	<vehicle id = "right_159" type = "typeWE" route = "right" depart = "540" />
	<vehicle id="down_160" type="typeNS" route="down" depart="540" color="1,0,0" />
	<vehicle id="up_161" type="typeNS" route="up" depart="541" color="1,0,0" />
	<vehicle id = "right_162" type = "typeWE" route = "right" depart = "542" />
	<vehicle id = "right_163" type = "typeWE" route = "right" depart = "543" />
	<vehicle id = "right_164" type = "typeWE" route = "right" depart = "545" />
	<vehicle id = "left_165" type = "typeWE" route = "left" depart = "548" />
	<vehicle id = "left_166" type = "typeWE" route = "left" depart = "550" />
	<vehicle id="down_167" type="typeNS" route="down" depart="552" color="1,0,0" />
	<vehicle id="down_168" type="typeNS" route="down" depart="553" color="1,0,0" />
	<vehicle id = "left_169" type = "typeWE" route = "left" depart = "555" />
	<vehicle id="down_170" type="typeNS" route="down" depart="557" color="1,0,0" />
	<vehicle id = "right_171" type = "typeWE" route = "right" depart = "558" />
	<vehicle id="down_172" type="typeNS" route="down" depart="559" color="1,0,0" />
	<vehicle id = "right_173" type = "typeWE" route = "right" depart = "562" />
	<vehicle id = "right_174" type = "typeWE" route = "right" depart = "563" />
	<vehicle id="down_175" type="typeNS" route="down" depart="579" color="1,0,0" />
	<vehicle id="up_176" type="typeNS" route="up" depart="580" color="1,0,0" />
	<vehicle id="down_177" type="typeNS" route="down" depart="582" color="1,0,0" />
	<vehicle id="down_178" type="typeNS" route="down" depart="585" color="1,0,0" />
	<vehicle id="up_179" type="typeNS" route="up" depart="593" color="1,0,0" />
	<vehicle id = "right_180" type = "typeWE" route = "right" depart = "596" />
	<vehicle id = "right_181" type = "typeWE" route = "right" depart = "601" />
	<vehicle id = "right_182" type = "typeWE" route = "right" depart = "606" />
	<vehicle id="down_183" type="typeNS" route="down" depart="606" color="1,0,0" />
	<vehicle id = "right_184" type = "typeWE" route = "right" depart = "609" />
	<vehicle id = "left_185" type = "typeWE" route = "left" depart = "609" />
	<vehicle id = "left_186" type = "typeWE" route = "left" depart = "613" />
	<vehicle id="down_187" type="typeNS" route="down" depart="619" color="1,0,0" />
	<vehicle id = "right_188" type = "typeWE" route = "right" depart = "629" />
	<vehicle id = "right_189" type = "typeWE" route = "right" depart = "634" />
	<vehicle id="up_190" type="typeNS" route="up" depart="635" color="1,0,0" />
	<vehicle id="up_191" type="typeNS" route="up" depart="640" color="1,0,0" />
	<vehicle id = "right_192" type = "typeWE" route = "right" depart = "642" />
	<vehicle id="down_193" type="typeNS" route="down" depart="643" color="1,0,0" />
	<vehicle id="up_194" type="typeNS" route="up" depart="646" color="1,0,0" />
	<vehicle id = "right_195" type = "typeWE" route = "right" depart = "649" />
	<vehicle id="down_196" type="typeNS" route="down" depart="654" color="1,0,0" />
	<vehicle id = "left_197" type = "typeWE" route = "left" depart = "659" />
	<vehicle id="down_198" type="typeNS" route="down" depart="659" color="1,0,0" />
	<vehicle id = "right_199" type = "typeWE" route = "right" depart = "660" />
	<vehicle id = "left_200" type = "typeWE" route = "left" depart = "660" />
	<vehicle id = "right_201" type = "typeWE" route = "right" depart = "662" />
	<vehicle id = "left_202" type = "typeWE" route = "left" depart = "665" />
	<vehicle id = "left_203" type = "typeWE" route = "left" depart = "666" />
	<vehicle id="down_204" type="typeNS" route="down" depart="666" color="1,0,0" />
	<vehicle id="up_205" type="typeNS" route="up" depart="671" color="1,0,0" />
	<vehicle id="down_206" type="typeNS" route="down" depart="672" color="1,0,0" />
	<vehicle id = "left_207" type = "typeWE" route = "left" depart = "676" />
	<vehicle id="up_208" type="typeNS" route="up" depart="683" color="1,0,0" />
	<vehicle id = "right_209" type = "typeWE" route = "right" depart = "687" />
	<vehicle id="up_210" type="typeNS" route="up" depart="688" color="1,0,0" />
	<vehicle id="down_211" type="typeNS" route="down" depart="691" color="1,0,0" />
	<vehicle id="down_212" type="typeNS" route="down" depart="693" color="1,0,0" />
	<vehicle id="up_213" type="typeNS" route="up" depart="701" color="1,0,0" />
	<vehicle id="down_214" type="typeNS" route="down" depart="702" color="1,0,0" />
	<vehicle id = "left_215" type = "typeWE" route = "left" depart = "704" />
	<vehicle id = "left_216" type = "typeWE" route = "left" depart = "706" />
	<vehicle id = "right_217" type = "typeWE" route = "right" depart = "709" />
	<vehicle id = "left_218" type = "typeWE" route = "left" depart = "709" />
	<vehicle id = "right_219" type = "typeWE" route = "right" depart = "711" />
	<vehicle id="down_220" type="typeNS" route="down" depart="712" color="1,0,0" />
	<vehicle id = "left_221" type = "typeWE" route = "left" depart = "714" />
	<vehicle id = "left_222" type = "typeWE" route = "left" depart = "721" />
	<vehicle id = "right_223" type = "typeWE" route = "right" depart = "724" />
	<vehicle id = "left_224" type = "typeWE" route = "left" depart = "727" />
	<vehicle id = "right_225" type = "typeWE" route = "right" depart = "730" />
	<vehicle id = "right_226" type = "typeWE" route = "right" depart = "731" />
	<vehicle id = "right_227" type = "typeWE" route = "right" depart = "733" />
	<vehicle id="up_228" type="typeNS" route="up" depart="741" color="1,0,0" />
	<vehicle id = "right_229" type = "typeWE" route = "right" depart = "745" />
	<vehicle id="down_230" type="typeNS" route="down" depart="747" color="1,0,0" />
	<vehicle id = "right_231" type = "typeWE" route = "right" depart = "751" />
	<vehicle id="up_232" type="typeNS" route="up" depart="754" color="1,0,0" />
	<vehicle id = "left_233" type = "typeWE" route = "left" depart = "758" />
	<vehicle id="up_234" type="typeNS" route="up" depart="760" color="1,0,0" />
	<vehicle id="down_235" type="typeNS" route="down" depart="761" color="1,0,0" />
	<vehicle id = "right_236" type = "typeWE" route = "right" depart = "763" />
	<vehicle id="down_237" type="typeNS" route="down" depart="765" color="1,0,0" />
	<vehicle id = "left_238" type = "typeWE" route = "left" depart = "782" />
	<vehicle id="down_239" type="typeNS" route="down" depart="783" color="1,0,0" />
	<vehicle id = "left_240" type = "typeWE" route = "left" depart = "785" />
	<vehicle id="down_241" type="typeNS" route="down" depart="792" color="1,0,0" />
	<vehicle id="up_242" type="typeNS" route="up" depart="795" color="1,0,0" />
	<vehicle id = "right_243" type = "typeWE" route = "right" depart = "801" />
	<vehicle id="up_244" type="typeNS" route="up" depart="801" color="1,0,0" />
	<vehicle id="up_245" type="typeNS" route="up" depart="802" color="1,0,0" />
	<vehicle id="down_246" type="typeNS" route="down" depart="808" color="1,0,0" />
	<vehicle id = "right_247" type = "typeWE" route = "right" depart = "814" />
	<vehicle id = "right_248" type = "typeWE" route = "right" depart = "823" />
	<vehicle id="down_249" type="typeNS" route="down" depart="824" color="1,0,0" />
	<vehicle id = "left_250" type = "typeWE" route = "left" depart = "828" />
	<vehicle id = "right_251" type = "typeWE" route = "right" depart = "830" />
	<vehicle id="down_252" type="typeNS" route="down" depart="831" color="1,0,0" />
	<vehicle id = "left_253" type = "typeWE" route = "left" depart = "832" />
	<vehicle id = "left_254" type = "typeWE" route = "left" depart = "841" />
	<vehicle id = "left_255" type = "typeWE" route = "left" depart = "842" />
	<vehicle id = "left_256" type = "typeWE" route = "left" depart = "843" />
	<vehicle id = "left_257" type = "typeWE" route = "left" depart = "850" />
	<vehicle id="down_258" type="typeNS" route="down" depart="851" color="1,0,0" />
	<vehicle id = "right_259" type = "typeWE" route = "right" depart = "853" />
	<vehicle id="up_260" type="typeNS" route="up" depart="855" color="1,0,0" />
	<vehicle id = "right_261" type = "typeWE" route = "right" depart = "857" />
	<vehicle id="down_262" type="typeNS" route="down" depart="857" color="1,0,0" />
	<vehicle id="down_263" type="typeNS" route="down" depart="859" color="1,0,0" />
	<vehicle id = "left_264" type = "typeWE" route = "left" depart = "865" />
	<vehicle id = "left_265" type = "typeWE" route = "left" depart = "867" />
	<vehicle id="down_266" type="typeNS" route="down" depart="870" color="1,0,0" />
	<vehicle id = "left_267" type = "typeWE" route = "left" depart = "875" />
	<vehicle id = "left_268" type = "typeWE" route = "left" depart = "879" />
	<vehicle id="down_269" type="typeNS" route="down" depart="879" color="1,0,0" />
	<vehicle id = "right_270" type = "typeWE" route = "right" depart = "886" />
	<vehicle id = "left_271" type = "typeWE" route = "left" depart = "892" />
	<vehicle id = "right_272" type = "typeWE" route = "right" depart = "906" />
	<vehicle id = "right_273" type = "typeWE" route = "right" depart = "909" />
	<vehicle id="up_274" type="typeNS" route="up" depart="913" color="1,0,0" />
	<vehicle id="down_275" type="typeNS" route="down" depart="921" color="1,0,0" />
	<vehicle id = "right_276" type = "typeWE" route = "right" depart = "928" />
	<vehicle id="up_277" type="typeNS" route="up" depart="932" color="1,0,0" />
	<vehicle id="up_278" type="typeNS" route="up" depart="934" color="1,0,0" />
	<vehicle id = "right_279" type = "typeWE" route = "right" depart = "935" />
	<vehicle id = "right_280" type = "typeWE" route = "right" depart = "939" />
	<vehicle id = "left_281" type = "typeWE" route = "left" depart = "939" />
	<vehicle id="down_282" type="typeNS" route="down" depart="941" color="1,0,0" />
	<vehicle id="down_283" type="typeNS" route="down" depart="943" color="1,0,0" />
	<vehicle id = "left_284" type = "typeWE" route = "left" depart = "950" />
	<vehicle id="down_285" type="typeNS" route="down" depart="956" color="1,0,0" />
	<vehicle id = "right_286" type = "typeWE" route = "right" depart = "961" />
	<vehicle id="down_287" type="typeNS" route="down" depart="966" color="1,0,0" />
	<vehicle id="up_288" type="typeNS" route="up" depart="966" color="1,0,0" />
	<vehicle id = "left_289" type = "typeWE" route = "left" depart = "967" />
	<vehicle id = "right_290" type = "typeWE" route = "right" depart = "976" />
	<vehicle id="down_291" type="typeNS" route="down" depart="976" color="1,0,0" />
	<vehicle id = "right_292" type = "typeWE" route = "right" depart = "978" />
	<vehicle id="down_293" type="typeNS" route="down" depart="984" color="1,0,0" />
	<vehicle id = "left_294" type = "typeWE" route = "left" depart = "988" />
	<vehicle id="down_295" type="typeNS" route="down" depart="988" color="1,0,0" />
	<vehicle id="down_296" type="typeNS" route="down" depart="989" color="1,0,0" />
	<vehicle id = "right_297" type = "typeWE" route = "right" depart = "990" />
	<vehicle id="down_298" type="typeNS" route="down" depart="991" color="1,0,0" />
	<vehicle id="down_299" type="typeNS" route="down" depart="992" color="1,0,0" />
	<vehicle id="down_300" type="typeNS" route="down" depart="998" color="1,0,0" />
	<vehicle id = "left_301" type = "typeWE" route = "left" depart = "999" />
	<vehicle id="down_302" type="typeNS" route="down" depart="1002" color="1,0,0" />
	<vehicle id = "right_303" type = "typeWE" route = "right" depart = "1005" />
	<vehicle id = "left_304" type = "typeWE" route = "left" depart = "1008" />
	<vehicle id="up_305" type="typeNS" route="up" depart="1017" color="1,0,0" />
	<vehicle id = "right_306" type = "typeWE" route = "right" depart = "1018" />
	<vehicle id = "right_307" type = "typeWE" route = "right" depart = "1019" />
	<vehicle id="down_308" type="typeNS" route="down" depart="1019" color="1,0,0" />
	<vehicle id="up_309" type="typeNS" route="up" depart="1019" color="1,0,0" />
	<vehicle id="down_310" type="typeNS" route="down" depart="1023" color="1,0,0" />
	<vehicle id="up_311" type="typeNS" route="up" depart="1024" color="1,0,0" />
	<vehicle id = "left_312" type = "typeWE" route = "left" depart = "1025" />
	<vehicle id="down_313" type="typeNS" route="down" depart="1027" color="1,0,0" />
	<vehicle id="down_314" type="typeNS" route="down" depart="1035" color="1,0,0" />
	<vehicle id = "right_315" type = "typeWE" route = "right" depart = "1036" />
	<vehicle id = "right_316" type = "typeWE" route = "right" depart = "1038" />
	<vehicle id="down_317" type="typeNS" route="down" depart="1039" color="1,0,0" />
	<vehicle id="up_318" type="typeNS" route="up" depart="1045" color="1,0,0" />
	<vehicle id = "right_319" type = "typeWE" route = "right" depart = "1049" />
	<vehicle id = "right_320" type = "typeWE" route = "right" depart = "1052" />
	<vehicle id="down_321" type="typeNS" route="down" depart="1062" color="1,0,0" />
	<vehicle id = "right_322" type = "typeWE" route = "right" depart = "1065" />
	<vehicle id = "right_323" type = "typeWE" route = "right" depart = "1071" />
	<vehicle id="up_324" type="typeNS" route="up" depart="1074" color="1,0,0" />
	<vehicle id = "right_325" type = "typeWE" route = "right" depart = "1076" />
	<vehicle id="down_326" type="typeNS" route="down" depart="1077" color="1,0,0" />
	<vehicle id = "right_327" type = "typeWE" route = "right" depart = "1081" />
	<vehicle id="down_328" type="typeNS" route="down" depart="1087" color="1,0,0" />
	<vehicle id="up_329" type="typeNS" route="up" depart="1088" color="1,0,0" />
	<vehicle id="up_330" type="typeNS" route="up" depart="1089" color="1,0,0" />
	<vehicle id="up_331" type="typeNS" route="up" depart="1090" color="1,0,0" />
	<vehicle id="up_332" type="typeNS" route="up" depart="1097" color="1,0,0" />
	<vehicle id = "right_333" type = "typeWE" route = "right" depart = "1098" />
	<vehicle id = "left_334" type = "typeWE" route = "left" depart = "1106" />
	<vehicle id="up_335" type="typeNS" route="up" depart="1108" color="1,0,0" />
	<vehicle id="up_336" type="typeNS" route="up" depart="1112" color="1,0,0" />
	<vehicle id = "right_337" type = "typeWE" route = "right" depart = "1113" />
	<vehicle id = "right_338" type = "typeWE" route = "right" depart = "1116" />
	<vehicle id = "right_339" type = "typeWE" route = "right" depart = "1123" />
	<vehicle id = "left_340" type = "typeWE" route = "left" depart = "1124" />
	<vehicle id = "left_341" type = "typeWE" route = "left" depart = "1125" />
	<vehicle id = "right_342" type = "typeWE" route = "right" depart = "1133" />
	<vehicle id="up_343" type="typeNS" route="up" depart="1136" color="1,0,0" />
	<vehicle id = "right_344" type = "typeWE" route = "right" depart = "1137" />
	<vehicle id = "right_345" type = "typeWE" route = "right" depart = "1138" />
	<vehicle id = "left_346" type = "typeWE" route = "left" depart = "1150" />
	<vehicle id = "left_347" type = "typeWE" route = "left" depart = "1152" />
	<vehicle id = "right_348" type = "typeWE" route = "right" depart = "1154" />
	<vehicle id = "right_349" type = "typeWE" route = "right" depart = "1158" />
	<vehicle id="down_350" type="typeNS" route="down" depart="1160" color="1,0,0" />
	<vehicle id="down_351" type="typeNS" route="down" depart="1161" color="1,0,0" />
	<vehicle id="up_352" type="typeNS" route="up" depart="1165" color="1,0,0" />
	<vehicle id="up_353" type="typeNS" route="up" depart="1171" color="1,0,0" />
	<vehicle id="down_354" type="typeNS" route="down" depart="1173" color="1,0,0" />
	<vehicle id = "left_355" type = "typeWE" route = "left" depart = "1175" />
	<vehicle id="down_356" type="typeNS" route="down" depart="1176" color="1,0,0" />
	<vehicle id="down_357" type="typeNS" route="down" depart="1177" color="1,0,0" />
	<vehicle id = "right_358" type = "typeWE" route = "right" depart = "1180" />
	<vehicle id="up_359" type="typeNS" route="up" depart="1180" color="1,0,0" />
	<vehicle id = "right_360" type = "typeWE" route = "right" depart = "1182" />
	<vehicle id="down_361" type="typeNS" route="down" depart="1182" color="1,0,0" />
	<vehicle id = "right_362" type = "typeWE" route = "right" depart = "1184" />
	<vehicle id="down_363" type="typeNS" route="down" depart="1185" color="1,0,0" />
	<vehicle id="down_364" type="typeNS" route="down" depart="1187" color="1,0,0" />
	<vehicle id="up_365" type="typeNS" route="up" depart="1191" color="1,0,0" />
	<vehicle id = "right_366" type = "typeWE" route = "right" depart = "1209" />
	<vehicle id="down_367" type="typeNS" route="down" depart="1209" color="1,0,0" />
	<vehicle id = "right_368" type = "typeWE" route = "right" depart = "1211" />
	<vehicle id = "left_369" type = "typeWE" route = "left" depart = "1213" />
	<vehicle id="down_370" type="typeNS" route="down" depart="1216" color="1,0,0" />
	<vehicle id="down_371" type="typeNS" route="down" depart="1218" color="1,0,0" />
	<vehicle id="down_372" type="typeNS" route="down" depart="1220" color="1,0,0" />
	<vehicle id = "left_373" type = "typeWE" route = "left" depart = "1234" />
	<vehicle id="down_374" type="typeNS" route="down" depart="1237" color="1,0,0" />
	<vehicle id = "left_375" type = "typeWE" route = "left" depart = "1238" />
	<vehicle id="up_376" type="typeNS" route="up" depart="1239" color="1,0,0" />
	<vehicle id = "left_377" type = "typeWE" route = "left" depart = "1252" />
	<vehicle id="down_378" type="typeNS" route="down" depart="1252" color="1,0,0" />
	<vehicle id = "right_379" type = "typeWE" route = "right" depart = "1255" />
	<vehicle id="up_380" type="typeNS" route="up" depart="1256" color="1,0,0" />